80252
  -OEChem-11072405383D

 15 14  0     0  0  0  0  0  0999 V2000
   -1.4737    0.6515    0.2583 O   0  0  0  0  0  0  0  0  0  0  0  0
    2.1312   -0.4278    0.9886 O   0  0  0  0  0  0  0  0  0  0  0  0
   -0.4042   -1.1847   -0.6454 O   0  0  0  0  0  0  0  0  0  0  0  0
    0.7578    0.9221   -0.4423 C   0  0  0  0  0  0  0  0  0  0  0  0
    2.0711    0.1741   -0.2983 C   0  0  0  0  0  0  0  0  0  0  0  0
   -0.4185   -0.0117   -0.2954 C   0  0  0  0  0  0  0  0  0  0  0  0
   -2.6638   -0.1234    0.4346 C   0  0  0  0  0  0  0  0  0  0  0  0
    0.6923    1.4121   -1.4183 H   0  0  0  0  0  0  0  0  0  0  0  0
    0.6940    1.6851    0.3424 H   0  0  0  0  0  0  0  0  0  0  0  0
    2.1681   -0.6172   -1.0481 H   0  0  0  0  0  0  0  0  0  0  0  0
    2.9219    0.8541   -0.4056 H   0  0  0  0  0  0  0  0  0  0  0  0
   -2.4722   -0.9635    1.1091 H   0  0  0  0  0  0  0  0  0  0  0  0
   -3.0305   -0.4798   -0.5327 H   0  0  0  0  0  0  0  0  0  0  0  0
   -3.4253    0.5201    0.8831 H   0  0  0  0  0  0  0  0  0  0  0  0
    2.0808    0.2845    1.6486 H   0  0  0  0  0  0  0  0  0  0  0  0
  1  6  1  0  0  0  0
  1  7  1  0  0  0  0
  2  5  1  0  0  0  0
  2 15  1  0  0  0  0
  3  6  2  0  0  0  0
  4  5  1  0  0  0  0
  4  6  1  0  0  0  0
  4  8  1  0  0  0  0
  4  9  1  0  0  0  0
  5 10  1  0  0  0  0
  5 11  1  0  0  0  0
  7 12  1  0  0  0  0
  7 13  1  0  0  0  0
  7 14  1  0  0  0  0
M  END
> <PUBCHEM_COMPOUND_CID>
80252

> <PUBCHEM_CONFORMER_RMSD>
0.4

> <PUBCHEM_CONFORMER_DIVERSEORDER>
1
14
2
15
12
8
13
4
6
11
10
3
5
16
7
9

> <PUBCHEM_MMFF94_PARTIAL_CHARGES>
8
1 -0.43
15 0.4
2 -0.68
3 -0.57
4 0.06
5 0.28
6 0.66
7 0.28

> <PUBCHEM_EFFECTIVE_ROTOR_COUNT>
3

> <PUBCHEM_PHARMACOPHORE_FEATURES>
3
1 2 acceptor
1 2 donor
1 3 acceptor

> <PUBCHEM_HEAVY_ATOM_COUNT>
7

> <PUBCHEM_ATOM_DEF_STEREO_COUNT>
0

> <PUBCHEM_ATOM_UDEF_STEREO_COUNT>
0

> <PUBCHEM_BOND_DEF_STEREO_COUNT>
0

> <PUBCHEM_BOND_UDEF_STEREO_COUNT>
0

> <PUBCHEM_ISOTOPIC_ATOM_COUNT>
0

> <PUBCHEM_COMPONENT_COUNT>
1

> <PUBCHEM_CACTVS_TAUTO_COUNT>
1

> <PUBCHEM_CONFORMER_ID>
0001397C00000001

> <PUBCHEM_MMFF94_ENERGY>
5.8065

> <PUBCHEM_FEATURE_SELFOVERLAP>
15.223

> <PUBCHEM_SHAPE_FINGERPRINT>
14390081 3 15123512484500955729
16714656 1 18341903990844600796
20096714 4 18341621463548226468
21040471 1 18060146435303003877
24536 1 17774432910208476124
29004967 10 16660645176165371324
5460574 1 9727639379717347245

> <PUBCHEM_SHAPE_MULTIPOLES>
126.45
3.35
0.95
0.83
0.84
0
-0.03
-0.22
-0.8
-0.1
0.08
-0.15
-0.14
-0.26

> <PUBCHEM_SHAPE_SELFOVERLAP>
228.903

> <PUBCHEM_SHAPE_VOLUME>
81.6

> <PUBCHEM_COORDINATE_TYPE>
2
5
10

$$$$
